packages/bdgd2opendss/bdgd2opendss-1.0.1.tar.gz/bdgd2opendss-1.0.1/tests/dss_models_output/sub__SE001/17_SE001_1/CargasMT_SA03_202312598_17_SE001_1_------1-----.dss
New "Load.MT_65146_M1" bus1="651461.1.2.3.4" phases=3 conn=Delta model=2 kv=23.100000000 kw = 13.4347715 pf=0.92 status=variable vmaxpu=1.5 vminpu=0.6 daily="MT6_SA"  
New "Load.MT_65146_M2" bus1="651461.1.2.3.4" phases=3 conn=Delta model=3 kv=23.100000000 kw = 13.4347715 pf=0.92 status=variable vmaxpu=1.5 vminpu=0.6 daily="MT6_SA" 
New "Load.MT_20050_M1" bus1="200501.1.2.3.4" phases=3 conn=Delta model=2 kv=23.100000000 kw = 52.689785 pf=0.92 status=variable vmaxpu=1.5 vminpu=0.6 daily="MT1_SA"  
New "Load.MT_20050_M2" bus1="200501.1.2.3.4" phases=3 conn=Delta model=3 kv=23.100000000 kw = 52.689785 pf=0.92 status=variable vmaxpu=1.5 vminpu=0.6 daily="MT1_SA" 
New "Load.MT_62502_M1" bus1="625021.1.2.3.4" phases=3 conn=Delta model=2 kv=23.100000000 kw = 3.913848 pf=0.92 status=variable vmaxpu=1.5 vminpu=0.6 daily="MT3_SA"  
New "Load.MT_62502_M2" bus1="625021.1.2.3.4" phases=3 conn=Delta model=3 kv=23.100000000 kw = 3.913848 pf=0.92 status=variable vmaxpu=1.5 vminpu=0.6 daily="MT3_SA" 
New "Load.MT_32932_M1" bus1="329321.1.2.3.4" phases=3 conn=Delta model=2 kv=23.100000000 kw = 132.6858515 pf=0.92 status=variable vmaxpu=1.5 vminpu=0.6 daily="MT1_SA"  
New "Load.MT_32932_M2" bus1="329321.1.2.3.4" phases=3 conn=Delta model=3 kv=23.100000000 kw = 132.6858515 pf=0.92 status=variable vmaxpu=1.5 vminpu=0.6 daily="MT1_SA" 
New "Load.MT_77971_1_M1" bus1="779901.1.2.3.4" phases=3 conn=Delta model=2 kv=23.100000000 kw = 3.616452 pf=0.92 status=variable vmaxpu=1.5 vminpu=0.6 daily="MT3_SA"  
New "Load.MT_77971_1_M2" bus1="779901.1.2.3.4" phases=3 conn=Delta model=3 kv=23.100000000 kw = 3.616452 pf=0.92 status=variable vmaxpu=1.5 vminpu=0.6 daily="MT3_SA" 
New "Load.MT_77971_2_M1" bus1="779901.1.2.3.4" phases=3 conn=Delta model=2 kv=23.100000000 kw = 1.1146985 pf=0.92 status=variable vmaxpu=1.5 vminpu=0.6 daily="MT2_SA"  
New "Load.MT_77971_2_M2" bus1="779901.1.2.3.4" phases=3 conn=Delta model=3 kv=23.100000000 kw = 1.1146985 pf=0.92 status=variable vmaxpu=1.5 vminpu=0.6 daily="MT2_SA" 
